Circuit: * C:\Users\Fabian Sosa\Desktop\QFSAE\Electrical\Git\pcb\spectrum-analyzer\LISN simulation\Draft1.asc

Number of points per octave reduced from 1000000 to 5373.

Date: Thu Aug 19 12:52:03 2021
Total elapsed time: 0.365 seconds.

tnom = 27
temp = 27
method = trap
totiter = 0
traniter = 0
tranpoints = 0
accept = 0
rejected = 0
matrix size = 4
fillins = 1
solver = Normal

