Circuit: * C:\Users\Fabian Sosa\Desktop\QFSAE\Electrical\Git\pcb\spectrum-analyzer\LISN simulation\Draft1.asc

Number of points per octave reduced from 1000000 to 5373.
WARNING: Node N002 is floating.

WARNING: Less than two connections to node V_OUT.  This node is used by L1.
WARNING: Less than two connections to node N002.  This node is used by C2.

Date: Sat Aug 21 12:27:17 2021
Total elapsed time: 0.210 seconds.

tnom = 27
temp = 27
method = trap
totiter = 0
traniter = 0
tranpoints = 0
accept = 0
rejected = 0
matrix size = 5
fillins = 1
solver = Normal

