Circuit: * C:\Users\Fabian Sosa\Desktop\QFSAE\Electrical\Project\Simulation.asc

L2: both pins shorted together -- ignoring.
C8: both pins shorted together -- ignoring.
WARNING: Specified period is not longer than the sum of Trise, Tfall, and Ton for v1.  Increasing period to 5.08e-008
Limiting fall time of source v1 to 9.92617e-024
WARNING: Node NC_01 is floating.
WARNING: Node N009 is floating.
WARNING: Node N012 is floating.

WARNING: Less than two connections to node NC_01.  This node is used by C1.
Direct Newton iteration for .op point succeeded.

Date: Fri Aug 13 23:14:20 2021
Total elapsed time: 0.408 seconds.

tnom = 27
temp = 27
method = modified trap
totiter = 34325
traniter = 34322
tranpoints = 17162
accept = 14962
rejected = 2200
matrix size = 31
fillins = 14
solver = Normal
Matrix Compiler1: 1.92 KB object code size  0.9/0.5/[0.2]
Matrix Compiler2: 2.43 KB object code size  0.4/0.7/[0.3]

